6
methanol-opt-1_2-1-002.log	Energy:  -71784.1262432
O         -0.75791       -0.12246        0.00660
C          0.67945        0.02091       -0.00639
H          1.01137        1.05258       -0.03597
H          1.10351       -0.51819       -0.84127
H          1.09131       -0.40263        0.90141
H         -1.21958        0.72246       -0.03859
