6
methanol-opt-1_2-1-272.log	Energy:  -71784.7116274
O          0.75806       -0.12053        0.01240
C         -0.67799        0.01090        0.00161
H         -1.08631        0.16582        0.99339
H         -1.09526       -0.86968       -0.45743
H         -1.01113        0.86718       -0.58025
H          1.19614        0.73549       -0.06460
