6
methanol-opt-2_2-1-092.log	Energy:  -72587.6750218
O         -0.74465       -0.12301       -0.00040
C          0.66021        0.01997        0.00218
H          1.06041        0.01057        1.02449
H          0.98956        0.93114       -0.51287
H          1.06063       -0.84164       -0.53842
H         -1.11468        0.76419        0.01691
