6
methanol-opt-2_2-1-062.log	Energy:  -72588.4165679
O         -0.74437        0.12168       -0.00001
C          0.65963       -0.01960        0.00001
H          1.02298       -0.54133       -0.89600
H          1.02297       -0.54136        0.89601
H          1.06084        0.99586        0.00002
H         -1.10960       -0.76898       -0.00003
