6
methanol-opt-1_2-1-122.log	Energy:  -71784.1268576
O          0.75791       -0.12246        0.00657
C         -0.67944        0.02091       -0.00638
H         -1.10357       -0.51798       -0.84136
H         -1.01135        1.05259       -0.03580
H         -1.09122       -0.40281        0.90138
H          1.21955        0.72248       -0.03848
