6
methanol-opt-2_2-1-122.log	Energy:  -72586.8560673
O          0.74487       -0.12433        0.00613
C         -0.66082        0.01886       -0.00612
H         -1.07556       -0.52877       -0.85839
H         -0.97740        1.06817       -0.03285
H         -1.05996       -0.41686        0.91771
H          1.11882        0.75895       -0.03881
