6
methanol-opt-2_2-1-332.log	Energy:  -72587.4336107
O         -0.74486       -0.12322        0.00519
C          0.66043        0.01473       -0.00775
H          0.98733        0.92867       -0.51967
H          1.07563       -0.87884       -0.47702
H          1.04436        0.08230        1.02099
H         -1.11098        0.76526       -0.01939
