6
methanol-opt-2_2-1-032.log	Energy:  -72587.6752232
O          0.74465       -0.12301       -0.00040
C         -0.66021        0.01997        0.00218
H         -0.98956        0.93116       -0.51284
H         -1.06044        0.01053        1.02449
H         -1.06065       -0.84161       -0.53845
H          1.11470        0.76418        0.01692
