6
methanol-opt-1_2-1-152.log	Energy:  -71784.7261712
O          0.75767       -0.12140        0.00583
C         -0.67788        0.01654       -0.00771
H         -1.09694       -0.86389       -0.46560
H         -1.02152        0.91241       -0.51390
H         -1.07692        0.08851        1.00018
H          1.20131        0.73492       -0.02101
