6
methanol-opt-2_2-1-212.log	Energy:  -72587.4324705
O         -0.74521       -0.12242        0.01197
C          0.66066        0.00905        0.00160
H          1.07404       -0.88442       -0.46937
H          1.05543        0.16128        1.01481
H          0.97455        0.88299       -0.58720
H         -1.10635        0.76518       -0.06359
