6
methanol-opt-2_2-1-152.log	Energy:  -72587.4342137
O          0.74487       -0.12322        0.00520
C         -0.66044        0.01473       -0.00774
H         -1.07566       -0.87882       -0.47704
H         -0.98733        0.92866       -0.51969
H         -1.04441        0.08234        1.02098
H          1.11103        0.76525       -0.01942
