6
methanol-opt-1_2-1-032.log	Energy:  -71785.0070933
O          0.75699       -0.12149       -0.00019
C         -0.67779        0.02204        0.00245
H         -1.02146        0.91693       -0.50522
H         -1.08899        0.01630        1.00501
H         -1.08462       -0.82622       -0.52746
H          1.20596        0.73265        0.01443
