6
methanol-opt-2_2-1-242.log	Energy:  -72586.7591660
O         -0.74541       -0.12414        0.00003
C          0.66119        0.00902       -0.00002
H          1.07197       -0.44498       -0.90746
H          1.07199       -0.44472        0.90754
H          0.96352        1.06511       -0.00014
H         -1.11130        0.76358       -0.00007
