6
methanol-opt-1_2-1-212.log	Energy:  -71784.7110789
O         -0.75804       -0.12054        0.01241
C          0.67800        0.01090        0.00161
H          1.09537       -0.86968       -0.45738
H          1.08618        0.16596        0.99344
H          1.01101        0.86722       -0.58029
H         -1.19625        0.73542       -0.06466
