6
methanol-opt_1.log	Energy:  -72588.4968433
O          0.74615        0.12215       -0.00000
C         -0.65998       -0.01969        0.00000
H         -1.03059       -0.54358        0.89305
H         -1.03059       -0.54362       -0.89303
H         -1.07878        0.98916       -0.00002
H          1.13063       -0.76106        0.00001
