6
methanol-opt_2.log	Energy:  -72185.0655150
O          0.74953        0.12259       -0.00000
C         -0.66445       -0.01964        0.00000
H         -1.03425       -0.54278        0.89137
H         -1.03425       -0.54282       -0.89135
H         -1.07641        0.98975       -0.00002
H          1.13535       -0.76700        0.00001
